******************************************************************************
*                                                                            *
*                   Copyright (C) 2004-2020, Silvaco Inc.                    *
*                           All rights reserved.                             *
*                                                                            *
* Silvaco and the Silvaco logo are trademarks of Silvaco Inc.                *
*                                                                            *
* All trademarks, logos, software marks, and trade names (collectively the   *
* "Marks") in this program are proprietary to Silvaco or other respective    *
* owners that have granted Silvaco the right and license to use such Marks.  *
* You are not permitted to use the Marks without the prior written consent   *
* of Silvaco or such third party that may own the Marks.                     *
*                                                                            *
* This file has been provided pursuant to a License Agreement containing     *
* restrictions on its use. This file contains valuable trade secrets and     *
* proprietary information of Silvaco Inc., and is protected by U.S. and      *
* international laws and/or treaties.                                        *
*                                                                            *
* The copyright notice(s) in this file does not indicate actual or intended  *
* publication of this file.                                                  *
*                                                                            *
******************************************************************************

.SUBCKT ACELEM1X1 A M P Q VDD VSS
*.PININFO A:I M:I P:I Q:O VDD:P VSS:G
M_i_0 net_6 M VSS VSS NMOS_VTL W=180n L=50n M=1
M_i_1 VSS A net_6 VSS NMOS_VTL W=180n L=50n M=1
M_i_2 net_6 net_8 net_7 VSS NMOS_VTL W=180n L=50n M=1
M_i_3 net_7 A net_10 VSS NMOS_VTL W=180n L=50n M=1
M_i_4 net_10 P VSS VSS NMOS_VTL W=180n L=50n M=1
M_i_5 net_8 net_7 VSS VSS NMOS_VTL W=155n L=50n M=1
M_i_6 VSS net_7 Q VSS NMOS_VTL W=155n L=50n M=1
M_i_7 VDD M net_11 VDD PMOS_VTL W=240n L=50n M=1
M_i_8 net_11 A net_7 VDD PMOS_VTL W=240n L=50n M=1
M_i_9 net_7 net_8 net_9 VDD PMOS_VTL W=240n L=50n M=1
M_i_10 net_9 A VDD VDD PMOS_VTL W=240n L=50n M=1
M_i_11 VDD P net_9 VDD PMOS_VTL W=240n L=50n M=1
M_i_12 net_8 net_7 VDD VDD PMOS_VTL W=215n L=50n M=1
M_i_13 VDD net_7 Q VDD PMOS_VTL W=215n L=50n M=1
.ENDS
.SUBCKT ACELEM1X2 A M P Q VDD VSS
*.PININFO A:I M:I P:I Q:O VDD:P VSS:G
M_i_0 net_6 M VSS VSS NMOS_VTL W=180n L=50n M=1
M_i_1 VSS A net_6 VSS NMOS_VTL W=180n L=50n M=1
M_i_2 net_6 net_8 net_7 VSS NMOS_VTL W=180n L=50n M=1
M_i_3 net_7 A net_10 VSS NMOS_VTL W=180n L=50n M=1
M_i_4 net_10 P VSS VSS NMOS_VTL W=180n L=50n M=1
M_i_5 net_8 net_7 VSS VSS NMOS_VTL W=155n L=50n M=1
M_i_6 VSS net_7 Q VSS NMOS_VTL W=305n L=50n M=1
M_i_7 VDD M net_11 VDD PMOS_VTL W=240n L=50n M=1
M_i_8 net_11 A net_7 VDD PMOS_VTL W=240n L=50n M=1
M_i_9 net_7 net_8 net_9 VDD PMOS_VTL W=240n L=50n M=1
M_i_10 net_9 A VDD VDD PMOS_VTL W=240n L=50n M=1
M_i_11 VDD P net_9 VDD PMOS_VTL W=240n L=50n M=1
M_i_12 net_8 net_7 VDD VDD PMOS_VTL W=215n L=50n M=1
M_i_13 VDD net_7 Q VDD PMOS_VTL W=415n L=50n M=1
.ENDS
.SUBCKT ACELEM1X4 A M P Q VDD VSS
*.PININFO A:I M:I P:I Q:O VDD:P VSS:G
M_i_0 net_6 M VSS VSS NMOS_VTL W=180n L=50n M=1
M_i_1 VSS A net_6 VSS NMOS_VTL W=180n L=50n M=1
M_i_2 net_6 net_8 net_7 VSS NMOS_VTL W=180n L=50n M=1
M_i_3 net_7 A net_10 VSS NMOS_VTL W=180n L=50n M=1
M_i_4 net_10 P VSS VSS NMOS_VTL W=180n L=50n M=1
M_i_5 net_8 net_7 VSS VSS NMOS_VTL W=155n L=50n M=1
M_i_6 VSS net_7 Q VSS NMOS_VTL W=305n L=50n M=1
M_i_7 VSS net_7 Q VSS NMOS_VTL W=305n L=50n M=1
M_i_8 VDD M net_11 VDD PMOS_VTL W=240n L=50n M=1
M_i_9 net_11 A net_7 VDD PMOS_VTL W=240n L=50n M=1
M_i_10 net_7 net_8 net_9 VDD PMOS_VTL W=240n L=50n M=1
M_i_11 net_9 A VDD VDD PMOS_VTL W=240n L=50n M=1
M_i_12 VDD P net_9 VDD PMOS_VTL W=240n L=50n M=1
M_i_13 net_8 net_7 VDD VDD PMOS_VTL W=215n L=50n M=1
M_i_14 VDD net_7 Q VDD PMOS_VTL W=415n L=50n M=1
M_i_15 VDD net_7 Q VDD PMOS_VTL W=415n L=50n M=1
.ENDS
.SUBCKT FILL1 VDD VSS
*.PININFO VDD:P VSS:G
.ENDS
.SUBCKT FILLTIE VDD VSS
*.PININFO VDD:P VSS:G
.ENDS
.SUBCKT INCL1W1111OF4X1 A B C D Q VDD VSS
*.PININFO A:I B:I C:I D:I Q:O VDD:P VSS:G
MPI0 VDD A pl00 VDD PMOS_VTL W=340n L=50n M=1
MPI1 pl00 B pl01 VDD PMOS_VTL W=340n L=50n M=1
MPI2 pl01 C pl02 VDD PMOS_VTL W=340n L=50n M=1
MPI3 pl02 D Q VDD PMOS_VTL W=340n L=50n M=1
MNI0 Q A VSS VSS NMOS_VTL W=180n L=50n M=1
MNI1 Q B VSS VSS NMOS_VTL W=180n L=50n M=1
MNI2 Q C VSS VSS NMOS_VTL W=180n L=50n M=1
MNI3 Q D VSS VSS NMOS_VTL W=180n L=50n M=1
.ENDS
.SUBCKT INCL1W111OF3X1 A B C Q VDD VSS
*.PININFO A:I B:I C:I Q:O VDD:P VSS:G
MPI0 VDD A pl00 VDD PMOS_VTL W=305n L=50n M=1
MPI1 pl00 B pl01 VDD PMOS_VTL W=305n L=50n M=1
MPI2 pl01 C Q VDD PMOS_VTL W=305n L=50n M=1
MNI0 Q A VSS VSS NMOS_VTL W=115n L=50n M=1
MNI1 Q B VSS VSS NMOS_VTL W=115n L=50n M=1
MNI2 Q C VSS VSS NMOS_VTL W=115n L=50n M=1
.ENDS
.SUBCKT INCL1W11OF2X1 A B Q VDD VSS
*.PININFO A:I B:I Q:O VDD:P VSS:G
M_i_1 Q B VSS VSS NMOS_VTL W=155n L=50n M=1 AD=0.012013P AS=0.012013P PD=0.310000U PS=0.310000U
M_i_0 VSS A Q VSS NMOS_VTL W=155n L=50n M=1 AD=0.012013P AS=0.012013P PD=0.310000U PS=0.310000U
M_i_3 net_0 B VDD VDD PMOS_VTL W=250n L=50n M=1 AD=0.031250P AS=0.031250P PD=0.500000U PS=0.500000U
M_i_2 Q A net_0 VDD PMOS_VTL W=250n L=50n M=1 AD=0.031250P AS=0.031250P PD=0.500000U PS=0.500000U
.ENDS
.SUBCKT INCL1W11OF2X2 A B Q VDD VSS
*.PININFO A:I B:I Q:O VDD:P VSS:G
M_i_1 Q B VSS VSS NMOS_VTL W=305n L=50n M=1 AD=0.012013P AS=0.012013P PD=0.310000U PS=0.310000U
M_i_0 VSS A Q VSS NMOS_VTL W=305n L=50n M=1 AD=0.012013P AS=0.012013P PD=0.310000U PS=0.310000U
M_i_3 net_0 B VDD VDD PMOS_VTL W=500n L=50n M=1 AD=0.031250P AS=0.031250P PD=0.500000U PS=0.500000U
M_i_2 Q A net_0 VDD PMOS_VTL W=500n L=50n M=1 AD=0.031250P AS=0.031250P PD=0.500000U PS=0.500000U
.ENDS
.SUBCKT INCL1W1OF1X1 A Q VDD VSS
*.PININFO A:I Q:O VDD:P VSS:G
MPO0 VDD A Q VDD PMOS_VTL W=205n L=50n M=1
MNO0 Q A VSS VSS NMOS_VTL W=155n L=50n M=1
.ENDS
.SUBCKT INCL1W1OF1X2 A Q VDD VSS
*.PININFO A:I Q:O VDD:P VSS:G
MPO0 VDD A Q VDD PMOS_VTL W=415n L=50n M=1
MNO0 Q A VSS VSS NMOS_VTL W=305n L=50n M=1
.ENDS
.SUBCKT INCL1W1OF1X4 A Q VDD VSS
*.PININFO A:I Q:O VDD:P VSS:G
MPO0 VDD A Q VDD PMOS_VTL W=415n L=50n M=1
MPO1 VDD A Q VDD PMOS_VTL W=415n L=50n M=1
MNO0 Q A VSS VSS NMOS_VTL W=305n L=50n M=1
MNO1 Q A VSS VSS NMOS_VTL W=305n L=50n M=1
.ENDS
.SUBCKT INCL2W11OF2X1 A B Q VDD VSS
*.PININFO A:I B:I Q:O VDD:P VSS:G
MPI0 VDD A pl00 VDD PMOS_VTL W=250n L=50n M=1
MPI1 pl00 B PREQ VDD PMOS_VTL W=250n L=50n M=1
MNI0 PREQ B nl00 VSS NMOS_VTL W=180n L=50n M=1
MNI1 nl00 A VSS VSS NMOS_VTL W=180n L=50n M=1
MPH0 PREQ IQ ph00 VDD PMOS_VTL W=250n L=50n M=1
MPH1 ph00 A VDD VDD PMOS_VTL W=250n L=50n M=1
MPH2 ph00 B VDD VDD PMOS_VTL W=250n L=50n M=1
MNH0 nh00 IQ PREQ VSS NMOS_VTL W=180n L=50n M=1
MNH1 VSS A nh00 VSS NMOS_VTL W=180n L=50n M=1
MNH2 VSS B nh00 VSS NMOS_VTL W=180n L=50n M=1
MNB0 IQ PREQ VSS VSS NMOS_VTL W=155n L=50n M=1
MPB0 VDD PREQ IQ VDD PMOS_VTL W=205n L=50n M=1
MNO0 Q IQ VSS VSS NMOS_VTL W=155n L=50n M=1
MPO0 VDD IQ Q VDD PMOS_VTL W=205n L=50n M=1
.ENDS
.SUBCKT INCL2W11OF2X2 A B Q VDD VSS
*.PININFO A:I B:I Q:O VDD:P VSS:G
MPI0 VDD A pl00 VDD PMOS_VTL W=250n L=50n M=1
MPI1 pl00 B PREQ VDD PMOS_VTL W=250n L=50n M=1
MNI0 PREQ B nl00 VSS NMOS_VTL W=180n L=50n M=1
MNI1 nl00 A VSS VSS NMOS_VTL W=180n L=50n M=1
MPH0 PREQ IQ ph00 VDD PMOS_VTL W=250n L=50n M=1
MPH1 ph00 A VDD VDD PMOS_VTL W=250n L=50n M=1
MPH2 ph00 B VDD VDD PMOS_VTL W=250n L=50n M=1
MNH0 nh00 IQ PREQ VSS NMOS_VTL W=180n L=50n M=1
MNH1 VSS A nh00 VSS NMOS_VTL W=180n L=50n M=1
MNH2 VSS B nh00 VSS NMOS_VTL W=180n L=50n M=1
MNB0 IQ PREQ VSS VSS NMOS_VTL W=155n L=50n M=1
MPB0 VDD PREQ IQ VDD PMOS_VTL W=205n L=50n M=1
MNO0 Q IQ VSS VSS NMOS_VTL W=305n L=50n M=1
MPO0 VDD IQ Q VDD PMOS_VTL W=415n L=50n M=1
.ENDS
.SUBCKT INCL2W11OF2X4 A B Q VDD VSS
*.PININFO A:I B:I Q:O VDD:P VSS:G
MPI0 VDD A pl00 VDD PMOS_VTL W=250n L=50n M=1
MPI1 pl00 B PREQ VDD PMOS_VTL W=250n L=50n M=1
MNI0 PREQ B nl00 VSS NMOS_VTL W=180n L=50n M=1
MNI1 nl00 A VSS VSS NMOS_VTL W=180n L=50n M=1
MPH0 PREQ IQ ph00 VDD PMOS_VTL W=250n L=50n M=1
MPH1 ph00 A VDD VDD PMOS_VTL W=250n L=50n M=1
MPH2 ph00 B VDD VDD PMOS_VTL W=250n L=50n M=1
MNH0 nh00 IQ PREQ VSS NMOS_VTL W=180n L=50n M=1
MNH1 VSS A nh00 VSS NMOS_VTL W=180n L=50n M=1
MNH2 VSS B nh00 VSS NMOS_VTL W=180n L=50n M=1
MNB0 IQ PREQ VSS VSS NMOS_VTL W=155n L=50n M=1
MPB0 VDD PREQ IQ VDD PMOS_VTL W=205n L=50n M=1
MNO0 Q IQ VSS VSS NMOS_VTL W=305n L=50n M=1
MNO1 Q IQ VSS VSS NMOS_VTL W=305n L=50n M=1
MPO0 VDD IQ Q VDD PMOS_VTL W=415n L=50n M=1
MPO1 VDD IQ Q VDD PMOS_VTL W=415n L=50n M=1
.ENDS
.SUBCKT INCL2W211OF3X1 A B C Q VDD VSS
*.PININFO A:I B:I C:I Q:O VDD:P VSS:G
MPI0 VDD B pl00 VDD PMOS_VTL W=305n L=50n M=1
MPI1 pl00 C PNET VDD PMOS_VTL W=305n L=50n M=1
MNI0 PREQ C nl00 VSS NMOS_VTL W=180n L=50n M=1
MNI1 nl00 B VSS VSS NMOS_VTL W=180n L=50n M=1
MNI2 PREQ A VSS VSS NMOS_VTL W=180n L=50n M=1
MPH0 PNET IQ ph00 VDD PMOS_VTL W=305n L=50n M=1
MPH2 ph00 B VDD VDD PMOS_VTL W=305n L=50n M=1
MPH3 ph00 C VDD VDD PMOS_VTL W=305n L=50n M=1
MNH0 nh00 IQ PREQ VSS NMOS_VTL W=180n L=50n M=1
MNH1 VSS B nh00 VSS NMOS_VTL W=180n L=50n M=1
MNH2 VSS C nh00 VSS NMOS_VTL W=180n L=50n M=1
MPG0 PNET A PREQ VDD PMOS_VTL W=305n L=50n M=1
MPB0 VDD PREQ IQ VDD PMOS_VTL W=205n L=50n M=1
MNB0 IQ PREQ VSS VSS NMOS_VTL W=155n L=50n M=1
MPO0 VDD IQ Q VDD PMOS_VTL W=205n L=50n M=1
MNO0 Q IQ VSS VSS NMOS_VTL W=155n L=50n M=1
.ENDS
.SUBCKT INCL2W211OF3X2 A B C Q VDD VSS
*.PININFO A:I B:I C:I Q:O VDD:P VSS:G
MPI0 VDD B pl00 VDD PMOS_VTL W=305n L=50n M=1
MPI1 pl00 C PNET VDD PMOS_VTL W=305n L=50n M=1
MNI0 PREQ C nl00 VSS NMOS_VTL W=180n L=50n M=1
MNI1 nl00 B VSS VSS NMOS_VTL W=180n L=50n M=1
MNI2 PREQ A VSS VSS NMOS_VTL W=180n L=50n M=1
MPH0 PNET IQ ph00 VDD PMOS_VTL W=305n L=50n M=1
MPH2 ph00 B VDD VDD PMOS_VTL W=305n L=50n M=1
MPH3 ph00 C VDD VDD PMOS_VTL W=305n L=50n M=1
MNH0 nh00 IQ PREQ VSS NMOS_VTL W=180n L=50n M=1
MNH1 VSS B nh00 VSS NMOS_VTL W=180n L=50n M=1
MNH2 VSS C nh00 VSS NMOS_VTL W=180n L=50n M=1
MPG0 PNET A PREQ VDD PMOS_VTL W=305n L=50n M=1
MPB0 VDD PREQ IQ VDD PMOS_VTL W=205n L=50n M=1
MNB0 IQ PREQ VSS VSS NMOS_VTL W=155n L=50n M=1
MPO0 VDD IQ Q VDD PMOS_VTL W=415n L=50n M=1
MNO0 Q IQ VSS VSS NMOS_VTL W=305n L=50n M=1
.ENDS
.SUBCKT INCL2W211OF3X4 A B C Q VDD VSS
*.PININFO A:I B:I C:I Q:O VDD:P VSS:G
MPI0 VDD B pl00 VDD PMOS_VTL W=305n L=50n M=1
MPI1 pl00 C PNET VDD PMOS_VTL W=305n L=50n M=1
MNI0 PREQ C nl00 VSS NMOS_VTL W=180n L=50n M=1
MNI1 nl00 B VSS VSS NMOS_VTL W=180n L=50n M=1
MNI2 PREQ A VSS VSS NMOS_VTL W=180n L=50n M=1
MPH0 PNET IQ ph00 VDD PMOS_VTL W=305n L=50n M=1
MPH2 ph00 B VDD VDD PMOS_VTL W=305n L=50n M=1
MPH3 ph00 C VDD VDD PMOS_VTL W=305n L=50n M=1
MNH0 nh00 IQ PREQ VSS NMOS_VTL W=180n L=50n M=1
MNH1 VSS B nh00 VSS NMOS_VTL W=180n L=50n M=1
MNH2 VSS C nh00 VSS NMOS_VTL W=180n L=50n M=1
MPG0 PNET A PREQ VDD PMOS_VTL W=305n L=50n M=1
MPB0 VDD PREQ IQ VDD PMOS_VTL W=205n L=50n M=1
MNB0 IQ PREQ VSS VSS NMOS_VTL W=155n L=50n M=1
MPO0 VDD IQ Q VDD PMOS_VTL W=415n L=50n M=1
MPO1 VDD IQ Q VDD PMOS_VTL W=415n L=50n M=1
MNO0 Q IQ VSS VSS NMOS_VTL W=305n L=50n M=1
MNO1 Q IQ VSS VSS NMOS_VTL W=305n L=50n M=1
.ENDS
.SUBCKT INCL3W111OF3X1 A B C Q VDD VSS
*.PININFO A:I B:I C:I Q:O VDD:P VSS:G
MPI0 VDD A pl00 VDD PMOS_VTL W=305n L=50n M=1
MPI1 pl00 B pl01 VDD PMOS_VTL W=305n L=50n M=1
MPI2 pl01 C PREQ VDD PMOS_VTL W=305n L=50n M=1
MNI0 PREQ C nl00 VSS NMOS_VTL W=205n L=50n M=1
MNI1 nl00 B nl01 VSS NMOS_VTL W=205n L=50n M=1
MNI2 nl01 A VSS VSS NMOS_VTL W=205n L=50n M=1
MPH0 VDD IQ ph00 VDD PMOS_VTL W=250n L=50n M=1
MPH1 ph00 A PREQ VDD PMOS_VTL W=250n L=50n M=1
MPH2 ph00 B PREQ VDD PMOS_VTL W=250n L=50n M=1
MPH3 ph00 C PREQ VDD PMOS_VTL W=250n L=50n M=1
MNH0 nh00 IQ VSS VSS NMOS_VTL W=180n L=50n M=1
MNH1 PREQ A nh00 VSS NMOS_VTL W=180n L=50n M=1
MNH2 PREQ B nh00 VSS NMOS_VTL W=180n L=50n M=1
MNH3 PREQ C nh00 VSS NMOS_VTL W=180n L=50n M=1
MPB0 VDD PREQ IQ VDD PMOS_VTL W=205n L=50n M=1
MNB0 IQ PREQ VSS VSS NMOS_VTL W=155n L=50n M=1
MPO0 VDD IQ Q VDD PMOS_VTL W=205n L=50n M=1
MNO0 Q IQ VSS VSS NMOS_VTL W=155n L=50n M=1
.ENDS
.SUBCKT INCL3W111OF3X2 A B C Q VDD VSS
*.PININFO A:I B:I C:I Q:O VDD:P VSS:G
MPI0 VDD A pl00 VDD PMOS_VTL W=305n L=50n M=1
MPI1 pl00 B pl01 VDD PMOS_VTL W=305n L=50n M=1
MPI2 pl01 C PREQ VDD PMOS_VTL W=305n L=50n M=1
MNI0 PREQ C nl00 VSS NMOS_VTL W=205n L=50n M=1
MNI1 nl00 B nl01 VSS NMOS_VTL W=205n L=50n M=1
MNI2 nl01 A VSS VSS NMOS_VTL W=205n L=50n M=1
MPH0 VDD IQ ph00 VDD PMOS_VTL W=250n L=50n M=1
MPH1 ph00 A PREQ VDD PMOS_VTL W=250n L=50n M=1
MPH2 ph00 B PREQ VDD PMOS_VTL W=250n L=50n M=1
MPH3 ph00 C PREQ VDD PMOS_VTL W=250n L=50n M=1
MNH0 nh00 IQ VSS VSS NMOS_VTL W=180n L=50n M=1
MNH1 PREQ A nh00 VSS NMOS_VTL W=180n L=50n M=1
MNH2 PREQ B nh00 VSS NMOS_VTL W=180n L=50n M=1
MNH3 PREQ C nh00 VSS NMOS_VTL W=180n L=50n M=1
MNB0 IQ PREQ VSS VSS NMOS_VTL W=155n L=50n M=1
MPB0 VDD PREQ IQ VDD PMOS_VTL W=205n L=50n M=1
MNO0 Q IQ VSS VSS NMOS_VTL W=305n L=50n M=1
MPO0 VDD IQ Q VDD PMOS_VTL W=415n L=50n M=1
.ENDS
.SUBCKT INCL3W111OF3X4 A B C Q VDD VSS
*.PININFO A:I B:I C:I Q:O VDD:P VSS:G
MPI0 VDD A pl00 VDD PMOS_VTL W=305n L=50n M=1
MPI1 pl00 B pl01 VDD PMOS_VTL W=305n L=50n M=1
MPI2 pl01 C PREQ VDD PMOS_VTL W=305n L=50n M=1
MNI0 PREQ C nl00 VSS NMOS_VTL W=205n L=50n M=1
MNI1 nl00 B nl01 VSS NMOS_VTL W=205n L=50n M=1
MNI2 nl01 A VSS VSS NMOS_VTL W=205n L=50n M=1
MPH0 VDD IQ ph00 VDD PMOS_VTL W=250n L=50n M=1
MPH1 ph00 A PREQ VDD PMOS_VTL W=250n L=50n M=1
MPH2 ph00 B PREQ VDD PMOS_VTL W=250n L=50n M=1
MPH3 ph00 C PREQ VDD PMOS_VTL W=250n L=50n M=1
MNH0 nh00 IQ VSS VSS NMOS_VTL W=180n L=50n M=1
MNH1 PREQ A nh00 VSS NMOS_VTL W=180n L=50n M=1
MNH2 PREQ B nh00 VSS NMOS_VTL W=180n L=50n M=1
MNH3 PREQ C nh00 VSS NMOS_VTL W=180n L=50n M=1
MNB0 IQ PREQ VSS VSS NMOS_VTL W=155n L=50n M=1
MPB0 VDD PREQ IQ VDD PMOS_VTL W=205n L=50n M=1
MNO0 Q IQ VSS VSS NMOS_VTL W=305n L=50n M=1
MNO1 Q IQ VSS VSS NMOS_VTL W=305n L=50n M=1
MPO0 VDD IQ Q VDD PMOS_VTL W=415n L=50n M=1
MPO1 VDD IQ Q VDD PMOS_VTL W=415n L=50n M=1
.ENDS
.SUBCKT INCL3W211OF3X1 A B C Q VDD VSS
*.PININFO A:I B:I C:I Q:O VDD:P VSS:G
MPI0 VDD C pl00 VDD PMOS_VTL W=305n L=50n M=1
MPI1 pl00 B pl01 VDD PMOS_VTL W=305n L=50n M=1
MPI2 pl01 A PREQ VDD PMOS_VTL W=305n L=50n M=1
MNI0 PREQ A nl00 VSS NMOS_VTL W=180n L=50n M=1
MNI1 nl00 B VSS VSS NMOS_VTL W=180n L=50n M=1
MNI2 nl00 C VSS VSS NMOS_VTL W=180n L=50n M=1
MPH0 PREQ IQ ph00 VDD PMOS_VTL W=305n L=50n M=1
MPH1 ph00 A VDD VDD PMOS_VTL W=305n L=50n M=1
MPH2 ph00 B ph01 VDD PMOS_VTL W=305n L=50n M=1
MPH3 ph01 C VDD VDD PMOS_VTL W=305n L=50n M=1
MNH0 nh00 IQ PREQ VSS NMOS_VTL W=180n L=50n M=1
MNH1 VSS A nh00 VSS NMOS_VTL W=180n L=50n M=1
MNH2 VSS B nh00 VSS NMOS_VTL W=180n L=50n M=1
MNH3 VSS C nh00 VSS NMOS_VTL W=180n L=50n M=1
MNB0 IQ PREQ VSS VSS NMOS_VTL W=155n L=50n M=1
MPB0 VDD PREQ IQ VDD PMOS_VTL W=205n L=50n M=1
MNO0 Q IQ VSS VSS NMOS_VTL W=155n L=50n M=1
MPO0 VDD IQ Q VDD PMOS_VTL W=205n L=50n M=1
.ENDS
.SUBCKT INCL3W211OF3X2 A B C Q VDD VSS
*.PININFO A:I B:I C:I Q:O VDD:P VSS:G
MPI0 VDD C pl00 VDD PMOS_VTL W=305n L=50n M=1
MPI1 pl00 B pl01 VDD PMOS_VTL W=305n L=50n M=1
MPI2 pl01 A PREQ VDD PMOS_VTL W=305n L=50n M=1
MNI0 PREQ A nl00 VSS NMOS_VTL W=180n L=50n M=1
MNI1 nl00 B VSS VSS NMOS_VTL W=180n L=50n M=1
MNI2 nl00 C VSS VSS NMOS_VTL W=180n L=50n M=1
MPH0 PREQ IQ ph00 VDD PMOS_VTL W=305n L=50n M=1
MPH1 ph00 A VDD VDD PMOS_VTL W=305n L=50n M=1
MPH2 ph00 B ph01 VDD PMOS_VTL W=305n L=50n M=1
MPH3 ph01 C VDD VDD PMOS_VTL W=305n L=50n M=1
MNH0 nh00 IQ PREQ VSS NMOS_VTL W=180n L=50n M=1
MNH1 VSS A nh00 VSS NMOS_VTL W=180n L=50n M=1
MNH2 VSS B nh00 VSS NMOS_VTL W=180n L=50n M=1
MNH3 VSS C nh00 VSS NMOS_VTL W=180n L=50n M=1
MNB0 IQ PREQ VSS VSS NMOS_VTL W=155n L=50n M=1
MPB0 VDD PREQ IQ VDD PMOS_VTL W=205n L=50n M=1
MNO0 Q IQ VSS VSS NMOS_VTL W=305n L=50n M=1
MPO0 VDD IQ Q VDD PMOS_VTL W=415n L=50n M=1
.ENDS
.SUBCKT INCL3W211OF3X4 A B C Q VDD VSS
*.PININFO A:I B:I C:I Q:O VDD:P VSS:G
MPI0 VDD C pl00 VDD PMOS_VTL W=305n L=50n M=1
MPI1 pl00 B pl01 VDD PMOS_VTL W=305n L=50n M=1
MPI2 pl01 A PREQ VDD PMOS_VTL W=305n L=50n M=1
MNI0 PREQ A nl00 VSS NMOS_VTL W=180n L=50n M=1
MNI1 nl00 B VSS VSS NMOS_VTL W=180n L=50n M=1
MNI2 nl00 C VSS VSS NMOS_VTL W=180n L=50n M=1
MPH0 PREQ IQ ph00 VDD PMOS_VTL W=305n L=50n M=1
MPH1 ph00 A VDD VDD PMOS_VTL W=305n L=50n M=1
MPH2 ph00 B ph01 VDD PMOS_VTL W=305n L=50n M=1
MPH3 ph01 C VDD VDD PMOS_VTL W=305n L=50n M=1
MNH0 nh00 IQ PREQ VSS NMOS_VTL W=180n L=50n M=1
MNH1 VSS A nh00 VSS NMOS_VTL W=180n L=50n M=1
MNH2 VSS B nh00 VSS NMOS_VTL W=180n L=50n M=1
MNH3 VSS C nh00 VSS NMOS_VTL W=180n L=50n M=1
MNB0 IQ PREQ VSS VSS NMOS_VTL W=155n L=50n M=1
MPB0 VDD PREQ IQ VDD PMOS_VTL W=205n L=50n M=1
MNO0 Q IQ VSS VSS NMOS_VTL W=305n L=50n M=1
MNO1 Q IQ VSS VSS NMOS_VTL W=305n L=50n M=1
MPO0 VDD IQ Q VDD PMOS_VTL W=415n L=50n M=1
MPO1 VDD IQ Q VDD PMOS_VTL W=415n L=50n M=1
.ENDS
.SUBCKT INCL4W1111OF4X1 A B C D Q VDD VSS
*.PININFO A:I B:I C:I D:I Q:O VDD:P VSS:G
MPI0 VDD A pl00 VDD PMOS_VTL W=340n L=50n M=1
MPI1 pl00 B pl01 VDD PMOS_VTL W=340n L=50n M=1
MPI2 pl01 C pl02 VDD PMOS_VTL W=340n L=50n M=1
MPI3 pl02 D PREQ VDD PMOS_VTL W=340n L=50n M=1
MNI0 PREQ D nl00 VSS NMOS_VTL W=235n L=50n M=1
MNI1 nl00 C nl01 VSS NMOS_VTL W=235n L=50n M=1
MNI2 nl01 B nl02 VSS NMOS_VTL W=235n L=50n M=1
MNI3 nl02 A VSS VSS NMOS_VTL W=235n L=50n M=1
MPH0 PREQ IQ ph00 VDD PMOS_VTL W=250n L=50n M=1
MPH1 ph00 A VDD VDD PMOS_VTL W=250n L=50n M=1
MPH2 ph00 B VDD VDD PMOS_VTL W=250n L=50n M=1
MPH3 ph00 C VDD VDD PMOS_VTL W=250n L=50n M=1
MPH4 ph00 D VDD VDD PMOS_VTL W=250n L=50n M=1
MNH0 nh00 IQ PREQ VSS NMOS_VTL W=180n L=50n M=1
MNH1 VSS A nh00 VSS NMOS_VTL W=180n L=50n M=1
MNH2 VSS B nh00 VSS NMOS_VTL W=180n L=50n M=1
MNH3 VSS C nh00 VSS NMOS_VTL W=180n L=50n M=1
MNH4 VSS D nh00 VSS NMOS_VTL W=180n L=50n M=1
MPB0 VDD PREQ IQ VDD PMOS_VTL W=205n L=50n M=1
MNB0 IQ PREQ VSS VSS NMOS_VTL W=155n L=50n M=1
MPO0 VDD IQ Q VDD PMOS_VTL W=205n L=50n M=1
MNO0 Q IQ VSS VSS NMOS_VTL W=155n L=50n M=1
.ENDS
.SUBCKT INCL4W1111OF4X2 A B C D Q VDD VSS
*.PININFO A:I B:I C:I D:I Q:O VDD:P VSS:G
MPI0 VDD A pl00 VDD PMOS_VTL W=340n L=50n M=1
MPI1 pl00 B pl01 VDD PMOS_VTL W=340n L=50n M=1
MPI2 pl01 C pl02 VDD PMOS_VTL W=340n L=50n M=1
MPI3 pl02 D PREQ VDD PMOS_VTL W=340n L=50n M=1
MNI0 PREQ D nl00 VSS NMOS_VTL W=235n L=50n M=1
MNI1 nl00 C nl01 VSS NMOS_VTL W=235n L=50n M=1
MNI2 nl01 B nl02 VSS NMOS_VTL W=235n L=50n M=1
MNI3 nl02 A VSS VSS NMOS_VTL W=235n L=50n M=1
MPH0 PREQ IQ ph00 VDD PMOS_VTL W=250n L=50n M=1
MPH1 ph00 A VDD VDD PMOS_VTL W=250n L=50n M=1
MPH2 ph00 B VDD VDD PMOS_VTL W=250n L=50n M=1
MPH3 ph00 C VDD VDD PMOS_VTL W=250n L=50n M=1
MPH4 ph00 D VDD VDD PMOS_VTL W=250n L=50n M=1
MNH0 nh00 IQ PREQ VSS NMOS_VTL W=180n L=50n M=1
MNH1 VSS A nh00 VSS NMOS_VTL W=180n L=50n M=1
MNH2 VSS B nh00 VSS NMOS_VTL W=180n L=50n M=1
MNH3 VSS C nh00 VSS NMOS_VTL W=180n L=50n M=1
MNH4 VSS D nh00 VSS NMOS_VTL W=180n L=50n M=1
MPB0 VDD PREQ IQ VDD PMOS_VTL W=205n L=50n M=1
MNB0 IQ PREQ VSS VSS NMOS_VTL W=155n L=50n M=1
MPO0 VDD IQ Q VDD PMOS_VTL W=415n L=50n M=1
MNO0 Q IQ VSS VSS NMOS_VTL W=305n L=50n M=1
.ENDS
.SUBCKT INCL4W1111OF4X4 A B C D Q VDD VSS
*.PININFO A:I B:I C:I D:I Q:O VDD:P VSS:G
MPI0 VDD A pl00 VDD PMOS_VTL W=340n L=50n M=1
MPI1 pl00 B pl01 VDD PMOS_VTL W=340n L=50n M=1
MPI2 pl01 C pl02 VDD PMOS_VTL W=340n L=50n M=1
MPI3 pl02 D PREQ VDD PMOS_VTL W=340n L=50n M=1
MNI0 PREQ D nl00 VSS NMOS_VTL W=235n L=50n M=1
MNI1 nl00 C nl01 VSS NMOS_VTL W=235n L=50n M=1
MNI2 nl01 B nl02 VSS NMOS_VTL W=235n L=50n M=1
MNI3 nl02 A VSS VSS NMOS_VTL W=235n L=50n M=1
MPH0 PREQ IQ ph00 VDD PMOS_VTL W=250n L=50n M=1
MPH1 ph00 A VDD VDD PMOS_VTL W=250n L=50n M=1
MPH2 ph00 B VDD VDD PMOS_VTL W=250n L=50n M=1
MPH3 ph00 C VDD VDD PMOS_VTL W=250n L=50n M=1
MPH4 ph00 D VDD VDD PMOS_VTL W=250n L=50n M=1
MNH0 nh00 IQ PREQ VSS NMOS_VTL W=180n L=50n M=1
MNH1 VSS A nh00 VSS NMOS_VTL W=180n L=50n M=1
MNH2 VSS B nh00 VSS NMOS_VTL W=180n L=50n M=1
MNH3 VSS C nh00 VSS NMOS_VTL W=180n L=50n M=1
MNH4 VSS D nh00 VSS NMOS_VTL W=180n L=50n M=1
MPB0 VDD PREQ IQ VDD PMOS_VTL W=205n L=50n M=1
MNB0 IQ PREQ VSS VSS NMOS_VTL W=155n L=50n M=1
MPO0 VDD IQ Q VDD PMOS_VTL W=415n L=50n M=1
MPO1 VDD IQ Q VDD PMOS_VTL W=415n L=50n M=1
MNO0 Q IQ VSS VSS NMOS_VTL W=305n L=50n M=1
MNO1 Q IQ VSS VSS NMOS_VTL W=305n L=50n M=1
.ENDS
.SUBCKT INCLP1W1111OF4X1 A B C D Q VDD VSS
*.PININFO A:I B:I C:I D:I Q:O VDD:P VSS:G
MPI0 Q A VDD VDD PMOS_VTL W=250n L=50n M=1
MPI1 Q B VDD VDD PMOS_VTL W=250n L=50n M=1
MPI2 Q C VDD VDD PMOS_VTL W=250n L=50n M=1
MPI3 Q D VDD VDD PMOS_VTL W=250n L=50n M=1
MNI0 Q D nl00 VSS NMOS_VTL W=235n L=50n M=1
MNI1 nl00 C nl01 VSS NMOS_VTL W=235n L=50n M=1
MNI2 nl01 B nl02 VSS NMOS_VTL W=235n L=50n M=1
MNI3 nl02 A VSS VSS NMOS_VTL W=235n L=50n M=1
.ENDS
.SUBCKT INCLP1W111OF3X1 A B C Q VDD VSS
*.PININFO A:I B:I C:I Q:O VDD:P VSS:G
MPI0 VDD A Q VDD PMOS_VTL W=205n L=50n M=1
MPI1 VDD B Q VDD PMOS_VTL W=205n L=50n M=1
MPI2 VDD C Q VDD PMOS_VTL W=205n L=50n M=1
MNI0 Q C nl00 VSS NMOS_VTL W=205n L=50n M=1
MNI1 nl00 B nl01 VSS NMOS_VTL W=205n L=50n M=1
MNI2 nl01 A VSS VSS NMOS_VTL W=205n L=50n M=1
.ENDS
.SUBCKT INCLP1W11OF2X1 A B Q VDD VSS
*.PININFO A:I B:I Q:O VDD:P VSS:G
M_i_1 net_0 B VSS VSS NMOS_VTL W=180n L=50n M=1 AD=0.016200P AS=0.016200P PD=0.360000U PS=0.360000U
M_i_0 Q A net_0 VSS NMOS_VTL W=180n L=50n M=1 AD=0.016200P AS=0.016200P PD=0.360000U PS=0.360000U
M_i_3 Q B VDD VDD PMOS_VTL W=205n L=50n M=1 AD=0.021012P AS=0.021012P PD=0.410000U PS=0.410000U
M_i_2 VDD A Q VDD PMOS_VTL W=205n L=50n M=1 AD=0.021012P AS=0.021012P PD=0.410000U PS=0.410000U
.ENDS
.SUBCKT INCLP1W11OF2X2 A B Q VDD VSS
*.PININFO A:I B:I Q:O VDD:P VSS:G
M_i_1 net_0 B VSS VSS NMOS_VTL W=360n L=50n M=1 AD=0.064800P AS=0.064800P PD=0.720000U PS=0.720000U
M_i_0 Q A net_0 VSS NMOS_VTL W=360n L=50n M=1 AD=0.064800P AS=0.064800P PD=0.720000U PS=0.720000U
M_i_3 Q B VDD VDD PMOS_VTL W=415n L=50n M=1 AD=0.086113P AS=0.086113P PD=0.830000U PS=0.830000U
M_i_2 VDD A Q VDD PMOS_VTL W=415n L=50n M=1 AD=0.086113P AS=0.086113P PD=0.830000U PS=0.830000U
.ENDS
.SUBCKT INCLP2W11OF2X1 A B Q VDD VSS
*.PININFO A:I B:I Q:O VDD:P VSS:G
MPI0 VDD A pl00 VDD PMOS_VTL W=250n L=50n M=1
MPI1 pl00 B PREQ VDD PMOS_VTL W=250n L=50n M=1
MNI0 PREQ B nl00 VSS NMOS_VTL W=180n L=50n M=1
MNI1 nl00 A VSS VSS NMOS_VTL W=180n L=50n M=1
MPH0 PREQ IQ ph00 VDD PMOS_VTL W=250n L=50n M=1
MPH1 ph00 A VDD VDD PMOS_VTL W=250n L=50n M=1
MPH2 ph00 B VDD VDD PMOS_VTL W=250n L=50n M=1
MNH0 nh00 IQ PREQ VSS NMOS_VTL W=180n L=50n M=1
MNH1 VSS A nh00 VSS NMOS_VTL W=180n L=50n M=1
MNH2 VSS B nh00 VSS NMOS_VTL W=180n L=50n M=1
MNB0 IQ PREQ VSS VSS NMOS_VTL W=155n L=50n M=1
MPB0 VDD PREQ IQ VDD PMOS_VTL W=205n L=50n M=1
MNO0 Q IQ VSS VSS NMOS_VTL W=155n L=50n M=1
MPO0 VDD IQ Q VDD PMOS_VTL W=205n L=50n M=1
.ENDS
.SUBCKT INCLP2W11OF2X2 A B Q VDD VSS
*.PININFO A:I B:I Q:O VDD:P VSS:G
MPI0 VDD A pl00 VDD PMOS_VTL W=250n L=50n M=1
MPI1 pl00 B PREQ VDD PMOS_VTL W=250n L=50n M=1
MNI0 PREQ B nl00 VSS NMOS_VTL W=180n L=50n M=1
MNI1 nl00 A VSS VSS NMOS_VTL W=180n L=50n M=1
MPH0 PREQ IQ ph00 VDD PMOS_VTL W=250n L=50n M=1
MPH1 ph00 A VDD VDD PMOS_VTL W=250n L=50n M=1
MPH2 ph00 B VDD VDD PMOS_VTL W=250n L=50n M=1
MNH0 nh00 IQ PREQ VSS NMOS_VTL W=180n L=50n M=1
MNH1 VSS A nh00 VSS NMOS_VTL W=180n L=50n M=1
MNH2 VSS B nh00 VSS NMOS_VTL W=180n L=50n M=1
MNB0 IQ PREQ VSS VSS NMOS_VTL W=155n L=50n M=1
MPB0 VDD PREQ IQ VDD PMOS_VTL W=205n L=50n M=1
MNO0 Q IQ VSS VSS NMOS_VTL W=305n L=50n M=1
MPO0 VDD IQ Q VDD PMOS_VTL W=415n L=50n M=1
.ENDS
.SUBCKT INCLP2W11OF2X4 A B Q VDD VSS
*.PININFO A:I B:I Q:O VDD:P VSS:G
MPI0 VDD A pl00 VDD PMOS_VTL W=250n L=50n M=1
MPI1 pl00 B PREQ VDD PMOS_VTL W=250n L=50n M=1
MNI0 PREQ B nl00 VSS NMOS_VTL W=180n L=50n M=1
MNI1 nl00 A VSS VSS NMOS_VTL W=180n L=50n M=1
MPH0 PREQ IQ ph00 VDD PMOS_VTL W=250n L=50n M=1
MPH1 ph00 A VDD VDD PMOS_VTL W=250n L=50n M=1
MPH2 ph00 B VDD VDD PMOS_VTL W=250n L=50n M=1
MNH0 nh00 IQ PREQ VSS NMOS_VTL W=180n L=50n M=1
MNH1 VSS A nh00 VSS NMOS_VTL W=180n L=50n M=1
MNH2 VSS B nh00 VSS NMOS_VTL W=180n L=50n M=1
MNB0 IQ PREQ VSS VSS NMOS_VTL W=155n L=50n M=1
MPB0 VDD PREQ IQ VDD PMOS_VTL W=205n L=50n M=1
MNO0 Q IQ VSS VSS NMOS_VTL W=305n L=50n M=1
MNO1 Q IQ VSS VSS NMOS_VTL W=305n L=50n M=1
MPO0 VDD IQ Q VDD PMOS_VTL W=415n L=50n M=1
MPO1 VDD IQ Q VDD PMOS_VTL W=415n L=50n M=1
.ENDS
.SUBCKT INCLP2W211OF3X1 A B C Q VDD VSS
*.PININFO A:I B:I C:I Q:O VDD:P VSS:G
MPI0 VDD B pl00 VDD PMOS_VTL W=250n L=50n M=1
MPI1 pl00 C PREQ VDD PMOS_VTL W=250n L=50n M=1
MPI2 VDD A PREQ VDD PMOS_VTL W=250n L=50n M=1
MNI0 NNET C nl00 VSS NMOS_VTL W=205n L=50n M=1
MNI1 nl00 B VSS VSS NMOS_VTL W=205n L=50n M=1
MPH0 PREQ IQ ph00 VDD PMOS_VTL W=250n L=50n M=1
MPH2 ph00 B VDD VDD PMOS_VTL W=250n L=50n M=1
MPH3 ph00 C VDD VDD PMOS_VTL W=250n L=50n M=1
MNH0 nh00 IQ NNET VSS NMOS_VTL W=205n L=50n M=1
MNH1 VSS B nh00 VSS NMOS_VTL W=205n L=50n M=1
MNH2 VSS C nh00 VSS NMOS_VTL W=205n L=50n M=1
MNG0 PREQ A NNET VSS NMOS_VTL W=205n L=50n M=1
MPB0 VDD PREQ IQ VDD PMOS_VTL W=205n L=50n M=1
MNB0 IQ PREQ VSS VSS NMOS_VTL W=155n L=50n M=1
MPO0 VDD IQ Q VDD PMOS_VTL W=205n L=50n M=1
MNO0 Q IQ VSS VSS NMOS_VTL W=155n L=50n M=1
.ENDS
.SUBCKT INCLP2W211OF3X2 A B C Q VDD VSS
*.PININFO A:I B:I C:I Q:O VDD:P VSS:G
MPI0 VDD B pl00 VDD PMOS_VTL W=250n L=50n M=1
MPI1 pl00 C PREQ VDD PMOS_VTL W=250n L=50n M=1
MPI2 VDD A PREQ VDD PMOS_VTL W=250n L=50n M=1
MNI0 NNET C nl00 VSS NMOS_VTL W=205n L=50n M=1
MNI1 nl00 B VSS VSS NMOS_VTL W=205n L=50n M=1
MPH0 PREQ IQ ph00 VDD PMOS_VTL W=250n L=50n M=1
MPH2 ph00 B VDD VDD PMOS_VTL W=250n L=50n M=1
MPH3 ph00 C VDD VDD PMOS_VTL W=250n L=50n M=1
MNH0 nh00 IQ NNET VSS NMOS_VTL W=205n L=50n M=1
MNH1 VSS B nh00 VSS NMOS_VTL W=205n L=50n M=1
MNH2 VSS C nh00 VSS NMOS_VTL W=205n L=50n M=1
MNG0 PREQ A NNET VSS NMOS_VTL W=205n L=50n M=1
MPB0 VDD PREQ IQ VDD PMOS_VTL W=205n L=50n M=1
MNB0 IQ PREQ VSS VSS NMOS_VTL W=155n L=50n M=1
MPO0 VDD IQ Q VDD PMOS_VTL W=415n L=50n M=1
MNO0 Q IQ VSS VSS NMOS_VTL W=305n L=50n M=1
.ENDS
.SUBCKT INCLP2W211OF3X4 A B C Q VDD VSS
*.PININFO A:I B:I C:I Q:O VDD:P VSS:G
MPI0 VDD B pl00 VDD PMOS_VTL W=250n L=50n M=1
MPI1 pl00 C PREQ VDD PMOS_VTL W=250n L=50n M=1
MPI2 VDD A PREQ VDD PMOS_VTL W=250n L=50n M=1
MNI0 NNET C nl00 VSS NMOS_VTL W=205n L=50n M=1
MNI1 nl00 B VSS VSS NMOS_VTL W=205n L=50n M=1
MPH0 PREQ IQ ph00 VDD PMOS_VTL W=250n L=50n M=1
MPH2 ph00 B VDD VDD PMOS_VTL W=250n L=50n M=1
MPH3 ph00 C VDD VDD PMOS_VTL W=250n L=50n M=1
MNH0 nh00 IQ NNET VSS NMOS_VTL W=205n L=50n M=1
MNH1 VSS B nh00 VSS NMOS_VTL W=205n L=50n M=1
MNH2 VSS C nh00 VSS NMOS_VTL W=205n L=50n M=1
MNG0 PREQ A NNET VSS NMOS_VTL W=205n L=50n M=1
MPB0 VDD PREQ IQ VDD PMOS_VTL W=205n L=50n M=1
MNB0 IQ PREQ VSS VSS NMOS_VTL W=155n L=50n M=1
MPO0 VDD IQ Q VDD PMOS_VTL W=415n L=50n M=1
MPO1 VDD IQ Q VDD PMOS_VTL W=415n L=50n M=1
MNO0 Q IQ VSS VSS NMOS_VTL W=305n L=50n M=1
MNO1 Q IQ VSS VSS NMOS_VTL W=305n L=50n M=1
.ENDS
.SUBCKT INCLP3W111OF3X1 A B C Q VDD VSS
*.PININFO A:I B:I C:I Q:O VDD:P VSS:G
MPI0 VDD A pl00 VDD PMOS_VTL W=305n L=50n M=1
MPI1 pl00 B pl01 VDD PMOS_VTL W=305n L=50n M=1
MPI2 pl01 C PREQ VDD PMOS_VTL W=305n L=50n M=1
MNI0 PREQ C nl00 VSS NMOS_VTL W=205n L=50n M=1
MNI1 nl00 B nl01 VSS NMOS_VTL W=205n L=50n M=1
MNI2 nl01 A VSS VSS NMOS_VTL W=205n L=50n M=1
MPH0 VDD IQ ph00 VDD PMOS_VTL W=250n L=50n M=1
MPH1 ph00 A PREQ VDD PMOS_VTL W=250n L=50n M=1
MPH2 ph00 B PREQ VDD PMOS_VTL W=250n L=50n M=1
MPH3 ph00 C PREQ VDD PMOS_VTL W=250n L=50n M=1
MNH0 nh00 IQ VSS VSS NMOS_VTL W=180n L=50n M=1
MNH1 PREQ A nh00 VSS NMOS_VTL W=180n L=50n M=1
MNH2 PREQ B nh00 VSS NMOS_VTL W=180n L=50n M=1
MNH3 PREQ C nh00 VSS NMOS_VTL W=180n L=50n M=1
MPB0 VDD PREQ IQ VDD PMOS_VTL W=205n L=50n M=1
MNB0 IQ PREQ VSS VSS NMOS_VTL W=155n L=50n M=1
MPO0 VDD IQ Q VDD PMOS_VTL W=205n L=50n M=1
MNO0 Q IQ VSS VSS NMOS_VTL W=155n L=50n M=1
.ENDS
.SUBCKT INCLP3W111OF3X2 A B C Q VDD VSS
*.PININFO A:I B:I C:I Q:O VDD:P VSS:G
MPI0 VDD A pl00 VDD PMOS_VTL W=305n L=50n M=1
MPI1 pl00 B pl01 VDD PMOS_VTL W=305n L=50n M=1
MPI2 pl01 C PREQ VDD PMOS_VTL W=305n L=50n M=1
MNI0 PREQ C nl00 VSS NMOS_VTL W=205n L=50n M=1
MNI1 nl00 B nl01 VSS NMOS_VTL W=205n L=50n M=1
MNI2 nl01 A VSS VSS NMOS_VTL W=205n L=50n M=1
MPH0 VDD IQ ph00 VDD PMOS_VTL W=250n L=50n M=1
MPH1 ph00 A PREQ VDD PMOS_VTL W=250n L=50n M=1
MPH2 ph00 B PREQ VDD PMOS_VTL W=250n L=50n M=1
MPH3 ph00 C PREQ VDD PMOS_VTL W=250n L=50n M=1
MNH0 nh00 IQ VSS VSS NMOS_VTL W=180n L=50n M=1
MNH1 PREQ A nh00 VSS NMOS_VTL W=180n L=50n M=1
MNH2 PREQ B nh00 VSS NMOS_VTL W=180n L=50n M=1
MNH3 PREQ C nh00 VSS NMOS_VTL W=180n L=50n M=1
MNB0 IQ PREQ VSS VSS NMOS_VTL W=155n L=50n M=1
MPB0 VDD PREQ IQ VDD PMOS_VTL W=205n L=50n M=1
MNO0 Q IQ VSS VSS NMOS_VTL W=305n L=50n M=1
MPO0 VDD IQ Q VDD PMOS_VTL W=415n L=50n M=1
.ENDS
.SUBCKT INCLP3W111OF3X4 A B C Q VDD VSS
*.PININFO A:I B:I C:I Q:O VDD:P VSS:G
MPI0 VDD A pl00 VDD PMOS_VTL W=305n L=50n M=1
MPI1 pl00 B pl01 VDD PMOS_VTL W=305n L=50n M=1
MPI2 pl01 C PREQ VDD PMOS_VTL W=305n L=50n M=1
MNI0 PREQ C nl00 VSS NMOS_VTL W=205n L=50n M=1
MNI1 nl00 B nl01 VSS NMOS_VTL W=205n L=50n M=1
MNI2 nl01 A VSS VSS NMOS_VTL W=205n L=50n M=1
MPH0 VDD IQ ph00 VDD PMOS_VTL W=250n L=50n M=1
MPH1 ph00 A PREQ VDD PMOS_VTL W=250n L=50n M=1
MPH2 ph00 B PREQ VDD PMOS_VTL W=250n L=50n M=1
MPH3 ph00 C PREQ VDD PMOS_VTL W=250n L=50n M=1
MNH0 nh00 IQ VSS VSS NMOS_VTL W=180n L=50n M=1
MNH1 PREQ A nh00 VSS NMOS_VTL W=180n L=50n M=1
MNH2 PREQ B nh00 VSS NMOS_VTL W=180n L=50n M=1
MNH3 PREQ C nh00 VSS NMOS_VTL W=180n L=50n M=1
MNB0 IQ PREQ VSS VSS NMOS_VTL W=155n L=50n M=1
MPB0 VDD PREQ IQ VDD PMOS_VTL W=205n L=50n M=1
MNO0 Q IQ VSS VSS NMOS_VTL W=305n L=50n M=1
MNO1 Q IQ VSS VSS NMOS_VTL W=305n L=50n M=1
MPO0 VDD IQ Q VDD PMOS_VTL W=415n L=50n M=1
MPO1 VDD IQ Q VDD PMOS_VTL W=415n L=50n M=1
.ENDS
.SUBCKT INCLP4W1111OF4X1 A B C D Q VDD VSS
*.PININFO A:I B:I C:I D:I Q:O VDD:P VSS:G